610

C 21.46700 6.14200 -4.57000 # C1 SMR
H 21.01700 6.78900 -5.32700 # H1 SMR
H 21.36700 6.63500 -3.59500 # H2 SMR
H 20.85400 5.23900 -4.54300 # H3 SMR
C 22.94400 5.86900 -4.90000 # C2 SMR
H 23.00100 5.44900 -5.91100 # H4 SMR
C 23.70100 7.22400 -4.91700 # C3 PNI
O 23.19600 8.25900 -4.48800 # O PNI
N 24.96400 7.19600 -5.46900 # N PNI
H 25.33300 6.29200 -5.73600 # HN PNI
C 25.90000 8.33300 -5.52200 # C4 PNI
H 26.71000 7.99100 -6.17900 # H1 PNI
C 25.36300 9.62800 -6.14300 # C5 PNI
H 24.64300 10.13600 -5.49400 # H2 PNI
H 24.89400 9.45400 -7.11600 # H3 PNI
H 26.19300 10.33100 -6.30200 # H4 PNI
C 26.50900 8.63300 -4.15400 # C6 PNI
H 25.73800 8.81400 -3.39900 # H5 PNI
H 27.15300 9.52000 -4.19800 # H6 PNI
H 27.12400 7.79300 -3.81600 # H7 PNI
C 23.53500 4.84800 -3.89500 # C1 MMR
H 23.50200 5.32700 -2.91200 # H1 MMR
H 24.59900 4.67200 -4.09700 # H2 MMR
C 22.76900 3.48900 -3.86700 # C2 MMR
H 21.70400 3.68700 -3.74700 # H4 MMR
C 22.92500 2.73500 -5.20300 # C3 PNI
O 23.91900 2.84600 -5.91100 # O PNI
N 21.82700 1.95300 -5.49900 # N PNI
H 21.04600 2.07700 -4.86600 # HN PNI
C 21.42800 1.45200 -6.81900 # C4 PNI
H 21.01500 2.31400 -7.35900 # H1 PNI
C 22.51200 0.83900 -7.70300 # C5 PNI
H 22.06900 0.50300 -8.65100 # H2 PNI
H 22.98900 -0.02600 -7.23400 # H3 PNI
H 23.28600 1.56500 -7.96900 # H4 PNI
C 20.30600 0.43100 -6.59600 # C6 PNI
H 20.54400 -0.23300 -5.75600 # H5 PNI
H 20.12100 -0.18800 -7.47900 # H6 PNI
H 19.37300 0.94800 -6.34600 # H7 PNI
C 23.13100 2.59600 -2.66400 # C1 MMR
H 24.19200 2.34400 -2.75500 # H1 MMR
H 22.59300 1.63900 -2.72100 # H2 MMR
C 22.82100 3.27900 -1.30900 # C2 MMR
H 23.33100 4.24200 -1.28100 # H4 MMR
C 21.31100 3.55500 -1.13900 # C3 PNI
O 20.44600 2.76100 -1.49200 # O PNI
N 21.07000 4.76800 -0.52800 # N PNI
H 21.87100 5.34500 -0.32200 # HN PNI
C 19.78900 5.30800 -0.07300 # C4 PNI
H 20.06800 6.24700 0.42200 # H1 PNI
C 18.80900 5.68800 -1.18400 # C5 PNI
H 18.11300 4.87800 -1.41800 # H2 PNI
H 19.31600 5.99200 -2.10200 # H3 PNI
H 18.20000 6.54000 -0.84800 # H4 PNI
C 19.13700 4.42300 0.98300 # C6 PNI
H 18.89900 3.42900 0.59300 # H5 PNI
H 18.21000 4.87400 1.35200 # H6 PNI
H 19.81200 4.29200 1.83700 # H7 PNI
C 23.35400 2.49500 -0.09300 # C1 MMR
H 22.81800 1.54200 -0.06300 # H1 MMR
H 23.09200 3.01300 0.83900 # H2 MMR
C 24.88700 2.27500 -0.15700 # C2 MMR
H 25.12200 1.79900 -1.11000 # H4 MMR
C 25.65900 3.61100 -0.11800 # C3 PNI
O 25.22700 4.61900 0.42700 # O PNI
N 26.86400 3.52600 -0.78600 # N PNI
H 26.96500 2.66900 -1.31800 # HN PNI
C 27.65100 4.63400 -1.33200 # C4 PNI
H 27.05700 5.05500 -2.15300 # H1 PNI
C 28.02400 5.77500 -0.38600 # C5 PNI
H 28.81200 5.48400 0.31700 # H2 PNI
H 27.17600 6.15700 0.18600 # H3 PNI
H 28.41700 6.61500 -0.97600 # H4 PNI
C 28.93500 4.01900 -1.90000 # C6 PNI
H 29.47000 3.46100 -1.12100 # H5 PNI
H 29.61100 4.77700 -2.30600 # H6 PNI
H 28.69800 3.30700 -2.69900 # H7 PNI
C 25.41000 1.31700 0.92000 # C1 MMR
H 25.22500 1.80600 1.88000 # H1 MMR
H 26.50000 1.21400 0.84400 # H2 MMR
C 24.74900 -0.08200 0.85700 # C2 MMR
H 23.66700 0.04400 0.90400 # H4 MMR
C 25.05900 -0.82500 -0.46300 # C3 PNI
O 26.06600 -0.61500 -1.12700 # O PNI
N 24.06600 -1.72600 -0.78800 # N PNI
H 23.23000 -1.61300 -0.22600 # HN PNI
C 23.78400 -2.30200 -2.10700 # C4 PNI
H 23.45900 -1.46900 -2.74100 # H1 PNI
C 24.92100 -3.02800 -2.82800 # C5 PNI
H 25.10800 -4.02100 -2.40700 # H2 PNI
H 25.86000 -2.47100 -2.82900 # H3 PNI
H 24.63700 -3.18000 -3.87900 # H4 PNI
C 22.61900 -3.27900 -1.91300 # C6 PNI
H 22.87600 -4.03600 -1.16000 # H5 PNI
H 22.35000 -3.79400 -2.83900 # H6 PNI
H 21.73300 -2.74900 -1.54400 # H7 PNI
C 25.12200 -0.95300 2.06200 # C1 MMR
H 26.19900 -1.12600 1.98600 # H1 MMR
H 24.65600 -1.94500 1.98500 # H2 MMR
C 24.74200 -0.29500 3.41000 # C2 MMR
H 25.18500 0.69900 3.45200 # H4 MMR
C 23.21600 -0.11200 3.56300 # C3 PNI
O 22.39700 -0.83300 3.00700 # O PNI
N 22.91000 0.96000 4.37500 # N PNI
H 23.71300 1.54600 4.57700 # HN PNI
C 21.64400 1.69700 4.44200 # C4 PNI
H 21.53300 2.20200 3.47500 # H1 PNI
C 20.36800 0.89800 4.70900 # C5 PNI
H 20.27800 0.60700 5.76100 # H2 PNI
H 20.28000 0.00100 4.09400 # H3 PNI
H 19.49700 1.53000 4.48200 # H4 PNI
C 21.81400 2.74500 5.54700 # C6 PNI
H 22.06600 2.25800 6.49900 # H5 PNI
H 20.91100 3.34200 5.69500 # H6 PNI
H 22.64100 3.42400 5.30800 # H7 PNI
C 25.32700 -1.04400 4.60700 # C1 MMR
H 24.84700 -2.02600 4.60700 # H1 MMR
H 25.02800 -0.56700 5.55000 # H2 MMR
C 26.87000 -1.15300 4.53500 # C2 MMR
H 27.15000 -1.58900 3.57700 # H4 MMR
C 27.56400 0.22800 4.61300 # C3 PNI
O 27.06200 1.19700 5.16800 # O PNI
N 28.78100 0.22600 3.96400 # N PNI
H 28.92900 -0.60400 3.40100 # HN PNI
C 29.53600 1.38300 3.47200 # C4 PNI
H 28.93700 1.81800 2.66300 # H1 PNI
C 29.86600 2.49600 4.46800 # C5 PNI
H 30.68700 2.21800 5.13800 # H2 PNI
H 29.01300 2.80200 5.07600 # H3 PNI
H 30.20100 3.38400 3.91300 # H4 PNI
C 30.84500 0.83200 2.89600 # C6 PNI
H 31.39900 0.28100 3.66800 # H5 PNI
H 31.49200 1.62300 2.50800 # H6 PNI
H 30.64000 0.12500 2.08500 # H7 PNI
C 27.42800 -2.11200 5.58400 # C1 MMR
H 27.20300 -1.65100 6.54800 # H1 MMR
H 28.52200 -2.16300 5.52700 # H2 MMR
C 26.82200 -3.53300 5.45700 # C2 MMR
H 25.73600 -3.45700 5.47000 # H4 MMR
C 27.20100 -4.22000 4.12500 # C3 PNI
O 28.22400 -3.95900 3.50600 # O PNI
N 26.23800 -5.12300 3.72300 # N PNI
H 25.37500 -5.04100 4.24700 # HN PNI
C 26.02600 -5.66000 2.37400 # C4 PNI
H 25.69900 -4.81600 1.75600 # H1 PNI
C 27.21300 -6.32600 1.67600 # C5 PNI
H 27.41500 -7.32700 2.07300 # H2 PNI
H 28.13300 -5.74200 1.73100 # H3 PNI
H 26.97500 -6.45300 0.61000 # H4 PNI
C 24.88700 -6.67900 2.49000 # C6 PNI
H 25.14800 -7.46300 3.21200 # H5 PNI
H 24.65700 -7.15500 1.53300 # H6 PNI
H 23.97600 -6.19500 2.86000 # H7 PNI
C 27.16100 -4.41300 6.65700 # C1 MMR
H 28.24400 -4.55400 6.63100 # H1 MMR
H 26.72900 -5.41500 6.54100 # H2 MMR
C 26.68500 -3.77700 7.98500 # C2 MMR
H 27.06200 -2.76000 8.04800 # H4 MMR
C 25.14300 -3.67600 8.08200 # C3 PNI
O 24.38500 -4.44000 7.49800 # O PNI
N 24.75000 -2.62100 8.88100 # N PNI
H 25.51300 -1.99300 9.10800 # HN PNI
C 23.44700 -1.94600 8.89100 # C4 PNI
H 23.35700 -1.44100 7.92200 # H1 PNI
C 22.19800 -2.80500 9.09300 # C5 PNI
H 22.07300 -3.11100 10.13700 # H2 PNI
H 22.17900 -3.69900 8.46600 # H3 PNI
H 21.31000 -2.21100 8.83200 # H4 PNI
C 23.51000 -0.89700 10.00700 # C6 PNI
H 23.74000 -1.37400 10.96800 # H5 PNI
H 22.57200 -0.34600 10.11200 # H6 PNI
H 24.31200 -0.17600 9.81000 # H7 PNI
C 27.26800 -4.48500 9.19900 # C1 MMR
H 26.84500 -5.49000 9.16500 # H1 MMR
H 26.89300 -4.04000 10.13000 # H2 MMR
C 28.81900 -4.49200 9.20800 # C2 MMR
H 29.20500 -4.82400 8.24400 # H4 MMR
C 29.43700 -3.08900 9.43800 # C3 PNI
O 28.76400 -2.08900 9.65300 # O PNI
N 30.81000 -3.11000 9.32200 # N PNI
H 31.16100 -3.96900 8.91500 # HN PNI
C 31.73200 -1.98700 9.13300 # C4 PNI
H 31.64400 -1.70700 8.07700 # H1 PNI
C 31.52800 -0.72700 9.97500 # C5 PNI
H 31.88900 -0.85400 11.00100 # H2 PNI
H 30.49100 -0.39000 10.01300 # H3 PNI
H 32.11200 0.09300 9.53300 # H4 PNI
C 33.14000 -2.53500 9.39500 # C6 PNI
H 33.21700 -2.92000 10.42000 # H5 PNI
H 33.91000 -1.77200 9.25600 # H6 PNI
H 33.36000 -3.37200 8.72200 # H7 PNI
C 29.35100 -5.49100 10.23500 # C1 MMR
H 29.06900 -5.07000 11.20100 # H1 MMR
H 30.44800 -5.52100 10.24000 # H2 MMR
C 28.80700 -6.92200 10.02500 # C2 MMR
H 27.72000 -6.89800 9.98500 # H4 MMR
C 29.28300 -7.54200 8.69100 # C3 PNI
O 30.31000 -7.19700 8.12200 # O PNI
N 28.39600 -8.48900 8.22800 # N PNI
H 27.50700 -8.47100 8.71700 # HN PNI
C 28.26900 -9.00800 6.86200 # C4 PNI
H 27.93000 -8.16800 6.24400 # H1 PNI
C 29.51800 -9.60300 6.21000 # C5 PNI
H 29.74700 -10.60200 6.59700 # H2 PNI
H 30.40600 -8.97900 6.32300 # H3 PNI
H 29.33800 -9.71700 5.13200 # H4 PNI
C 27.17600 -10.08100 6.91000 # C6 PNI
H 27.44100 -10.86300 7.63500 # H5 PNI
H 27.01400 -10.55300 5.93800 # H6 PNI
H 26.22700 -9.64600 7.24500 # H7 PNI
C 29.11700 -7.82200 11.21700 # C1 MMR
H 30.20400 -7.92100 11.23800 # H1 MMR
H 28.73000 -8.83600 11.05600 # H2 MMR
C 28.55000 -7.23500 12.53500 # C2 MMR
H 28.87300 -6.20300 12.63500 # H4 MMR
C 27.00300 -7.19600 12.56400 # C3 PNI
O 26.30300 -7.96000 11.91200 # O PNI
N 26.53100 -6.18700 13.38100 # N PNI
H 27.25800 -5.54300 13.67500 # HN PNI
C 25.20500 -5.56000 13.33900 # C4 PNI
H 25.14200 -5.04000 12.37500 # H1 PNI
C 23.98500 -6.47300 13.46600 # C5 PNI
H 23.83000 -6.81000 14.49600 # H2 PNI
H 24.03200 -7.35100 12.81900 # H3 PNI
H 23.08500 -5.91000 13.18000 # H4 PNI
C 25.17200 -4.52900 14.47400 # C6 PNI
H 25.37300 -5.01500 15.43800 # H5 PNI
H 24.20800 -4.01700 14.54100 # H6 PNI
H 25.95300 -3.77400 14.32900 # H7 PNI
C 29.11900 -7.92700 13.76400 # C1 MMR
H 28.75800 -8.95400 13.71000 # H1 MMR
H 28.68600 -7.51000 14.68200 # H2 MMR
C 30.66600 -7.84000 13.82900 # C2 MMR
H 31.10700 -8.10800 12.87100 # H4 MMR
C 31.19400 -6.40900 14.12000 # C3 PNI
O 30.45900 -5.44900 14.31900 # O PNI
N 32.57300 -6.35300 14.07000 # N PNI
H 32.98300 -7.18800 13.66800 # HN PNI
C 33.44600 -5.18500 13.93000 # C4 PNI
H 33.38100 -4.89100 12.87600 # H1 PNI
C 33.15300 -3.95200 14.78300 # C5 PNI
H 33.48400 -4.08000 15.81900 # H2 PNI
H 32.10000 -3.66800 14.78900 # H3 PNI
H 33.71200 -3.09700 14.37600 # H4 PNI
C 34.87100 -5.66800 14.23100 # C6 PNI
H 34.93000 -6.08100 15.24600 # H5 PNI
H 35.60500 -4.86300 14.14600 # H6 PNI
H 35.16100 -6.47100 13.54300 # H7 PNI
C 31.21700 -8.84300 14.83900 # C1 MMR
H 30.86500 -8.47300 15.80200 # H1 MMR
H 32.31300 -8.79700 14.89400 # H2 MMR
C 30.79700 -10.31000 14.57600 # C2 MMR
H 29.71700 -10.38600 14.43200 # H4 MMR
C 31.42800 -10.90200 13.28900 # C3 PNI
O 32.19900 -10.29300 12.58900 # O PNI
N 30.97100 -12.17600 13.03400 # N PNI
H 30.16600 -12.42100 13.59200 # HN PNI
C 31.06000 -12.95000 11.79700 # C4 PNI
H 30.30100 -12.52100 11.12200 # H1 PNI
C 32.39400 -12.97700 11.04900 # C5 PNI
H 33.11600 -13.65300 11.52000 # H2 PNI
H 32.85700 -11.99800 10.94100 # H3 PNI
H 32.22000 -13.36400 10.03200 # H4 PNI
C 30.66400 -14.38500 12.16000 # C6 PNI
H 31.34900 -14.78900 12.92100 # H5 PNI
H 30.68300 -15.04900 11.29500 # H6 PNI
H 29.65900 -14.40900 12.59500 # H7 PNI
C 31.10900 -11.18100 15.79900 # C1 MMR
H 32.19900 -11.20300 15.86300 # H1 MMR
H 30.80800 -12.22300 15.63900 # H2 MMR
C 30.45200 -10.65200 17.09300 # C2 MMR
H 30.71000 -9.60700 17.22900 # H4 MMR
C 28.91000 -10.71200 17.04900 # C3 PNI
O 28.29100 -11.51600 16.36400 # O PNI
N 28.34100 -9.74500 17.85600 # N PNI
H 29.01300 -9.06100 18.18600 # HN PNI
C 26.98500 -9.19600 17.76300 # C4 PNI
H 26.93600 -8.66100 16.80700 # H1 PNI
C 25.81500 -10.17900 17.81500 # C5 PNI
H 25.63200 -10.54500 18.83100 # H2 PNI
H 25.94200 -11.03900 17.15600 # H3 PNI
H 24.89900 -9.66100 17.49600 # H4 PNI
C 26.84300 -8.19300 18.91400 # C6 PNI
H 27.02900 -8.68700 19.87600 # H5 PNI
H 25.84900 -7.73900 18.94700 # H6 PNI
H 27.58400 -7.39200 18.81800 # H7 PNI
C 31.00500 -11.34600 18.32900 # C1 MMR
H 30.70500 -12.39000 18.23400 # H1 MMR
H 30.51100 -10.98000 19.23800 # H2 MMR
C 32.54100 -11.17900 18.45800 # C2 MMR
H 33.03200 -11.41400 17.51700 # H4 MMR
C 32.98100 -9.72400 18.77700 # C3 PNI
O 32.18900 -8.80700 18.95200 # O PNI
N 34.34900 -9.59200 18.77600 # N PNI
H 34.82200 -10.39600 18.36600 # HN PNI
C 35.16100 -8.37400 18.67600 # C4 PNI
H 35.10900 -8.06400 17.62400 # H1 PNI
C 34.77100 -7.17800 19.54300 # C5 PNI
H 35.07800 -7.31000 20.58600 # H2 PNI
H 33.70200 -6.95800 19.52300 # H3 PNI
H 35.28800 -6.28300 19.17100 # H4 PNI
C 36.60200 -8.77900 19.00900 # C6 PNI
H 36.65600 -9.20500 20.02000 # H5 PNI
H 37.29200 -7.93300 18.95700 # H6 PNI
H 36.95600 -9.55400 18.31900 # H7 PNI
C 33.10600 -12.17400 19.46800 # C1 MMR
H 32.69100 -11.85100 20.42400 # H1 MMR
H 34.19300 -12.06400 19.57400 # H2 MMR
C 32.78500 -13.65700 19.14600 # C2 MMR
H 31.72200 -13.79000 18.95000 # H4 MMR
C 33.51000 -14.18700 17.88400 # C3 PNI
O 34.31000 -13.51800 17.24300 # O PNI
N 33.11500 -15.47100 17.57000 # N PNI
H 32.28300 -15.76000 18.07000 # HN PNI
C 33.29000 -16.20900 16.31500 # C4 PNI
H 32.54300 -15.80100 15.62500 # H1 PNI
C 34.65200 -16.15700 15.62400 # C5 PNI
H 35.38700 -16.80700 16.11000 # H2 PNI
H 35.07000 -15.15100 15.56000 # H3 PNI
H 34.54100 -16.52200 14.59300 # H4 PNI
C 32.94700 -17.67300 16.62100 # C6 PNI
H 33.62100 -18.07200 17.39000 # H5 PNI
H 33.02600 -18.30900 15.73500 # H6 PNI
H 31.92900 -17.75800 17.01600 # H7 PNI
C 33.09300 -14.53800 20.35800 # C1 MMR
H 34.17800 -14.49500 20.46200 # H1 MMR
H 32.85900 -15.59100 20.16200 # H2 MMR
C 32.35600 -14.08200 21.63800 # C2 MMR
H 32.56500 -13.03200 21.82900 # H4 MMR
C 30.82200 -14.21200 21.51500 # C3 PNI
O 30.28100 -15.02300 20.77400 # O PNI
N 30.16900 -13.29900 22.31500 # N PNI
H 30.78400 -12.58300 22.68300 # HN PNI
C 28.78200 -12.83500 22.19900 # C4 PNI
H 28.72500 -12.27100 21.26100 # H1 PNI
C 27.67600 -13.89000 22.18700 # C5 PNI
H 27.48400 -14.29600 23.18600 # H2 PNI
H 27.87800 -14.72200 21.51000 # H3 PNI
H 26.74000 -13.42200 21.85200 # H4 PNI
C 28.54800 -11.88500 23.38000 # C6 PNI
H 28.73400 -12.40400 24.33000 # H5 PNI
H 27.52900 -11.49000 23.39800 # H6 PNI
H 29.24500 -11.04100 23.33700 # H7 PNI
C 32.88900 -14.79800 22.87200 # C1 MMR
H 32.62500 -15.84800 22.73700 # H1 MMR
H 32.36100 -14.47300 23.77700 # H2 MMR
C 34.41700 -14.58400 23.03800 # C2 MMR
H 34.92200 -14.85400 22.11400 # H4 MMR
C 34.78300 -13.10800 23.31200 # C3 PNI
O 34.01500 -12.32000 23.84900 # O PNI
N 36.04600 -12.79600 22.85100 # N PNI
H 36.43500 -13.51000 22.24400 # HN PNI
C 36.59300 -11.46400 22.57300 # C4 PNI
H 36.03800 -11.08000 21.70800 # H1 PNI
C 36.51900 -10.41700 23.68500 # C5 PNI
H 37.26700 -10.59200 24.46500 # H2 PNI
H 35.53700 -10.35400 24.15700 # H3 PNI
H 36.73400 -9.42600 23.25800 # H4 PNI
C 38.06200 -11.66900 22.18400 # C6 PNI
H 38.60200 -12.18100 22.99100 # H5 PNI
H 38.57100 -10.72500 21.97500 # H6 PNI
H 38.13800 -12.30600 21.29600 # H7 PNI
C 35.01400 -15.52700 24.07300 # C1 MMR
H 34.55600 -15.24300 25.02200 # H1 MMR
H 36.09000 -15.35000 24.19400 # H2 MMR
C 34.75400 -17.01100 23.70600 # C2 MMR
H 33.69000 -17.15600 23.52700 # H4 MMR
C 35.46800 -17.44000 22.40000 # C3 PNI
O 36.48300 -16.89500 21.98500 # O PNI
N 34.80100 -18.46600 21.76400 # N PNI
H 33.87300 -18.63000 22.13900 # HN PNI
C 34.91600 -18.86700 20.35700 # C4 PNI
H 34.51700 -18.03100 19.76900 # H1 PNI
C 36.30900 -19.19900 19.82200 # C5 PNI
H 36.65500 -20.18200 20.16000 # H2 PNI
H 37.06500 -18.45800 20.09000 # H3 PNI
H 36.27100 -19.23900 18.72400 # H4 PNI
C 34.01300 -20.09200 20.17800 # C6 PNI
H 34.31600 -20.89400 20.86400 # H5 PNI
H 34.04200 -20.48400 19.15800 # H6 PNI
H 32.97400 -19.84200 20.42000 # H7 PNI
C 35.07100 -17.94500 24.86600 # C1 MMR
H 36.14700 -17.85800 25.02500 # H1 MMR
H 34.89100 -18.99100 24.58900 # H2 MMR
C 34.25500 -17.58000 26.13400 # C2 MMR
H 34.40500 -16.52800 26.36700 # H4 MMR
C 32.73100 -17.77400 25.94300 # C3 PNI
O 32.25600 -18.57900 25.15200 # O PNI
N 32.00100 -16.92300 26.74700 # N PNI
H 32.56300 -16.18400 27.15400 # HN PNI
C 30.59100 -16.53700 26.60800 # C4 PNI
H 30.52800 -15.93100 25.69600 # H1 PNI
C 29.55100 -17.65300 26.50800 # C5 PNI
H 29.35400 -18.12100 27.47900 # H2 PNI
H 29.82000 -18.43600 25.79700 # H3 PNI
H 28.59700 -17.22400 26.16700 # H4 PNI
C 30.26200 -15.66300 27.82400 # C6 PNI
H 30.45200 -16.21500 28.75400 # H5 PNI
H 29.21900 -15.33300 27.82800 # H6 PNI
H 30.90300 -14.77500 27.84400 # H7 PNI
C 34.76100 -18.31500 27.36800 # C1 MMR
H 34.55100 -19.37100 27.18500 # H1 MMR
H 34.17300 -18.04300 28.25400 # H2 MMR
C 36.26600 -18.05000 27.62600 # C2 MMR
H 36.83200 -18.27600 26.72500 # H4 MMR
C 36.56700 -16.57500 27.97800 # C3 PNI
O 35.74600 -15.83400 28.50300 # O PNI
N 37.85100 -16.21400 27.62100 # N PNI
H 38.29400 -16.88000 26.99800 # HN PNI
C 38.39200 -14.85800 27.47100 # C4 PNI
H 37.88100 -14.41700 26.60700 # H1 PNI
C 38.23900 -13.90000 28.65300 # C5 PNI
H 38.94100 -14.13000 29.46200 # H2 PNI
H 37.23000 -13.88100 29.06800 # H3 PNI
H 38.46800 -12.87800 28.31800 # H4 PNI
C 39.88400 -15.01600 27.15400 # C6 PNI
H 40.38500 -15.58500 27.94800 # H5 PNI
H 40.39000 -14.05200 27.05100 # H6 PNI
H 40.02100 -15.57700 26.22300 # H7 PNI
C 36.82800 -18.99000 28.68500 # C1 MMR
H 36.30000 -18.73800 29.60700 # H1 MMR
H 37.88700 -18.77700 28.87800 # H2 MMR
C 36.64700 -20.47600 28.29200 # C2 MMR
H 35.60100 -20.66300 28.05300 # H4 MMR
C 37.46000 -20.85900 27.03200 # C3 PNI
O 38.49400 -20.28700 26.71000 # O PNI
N 36.87100 -21.89100 26.33500 # N PNI
H 35.91600 -22.07200 26.62200 # HN PNI
C 37.12700 -22.31000 24.95200 # C4 PNI
H 36.71700 -21.52000 24.31100 # H1 PNI
C 38.57800 -22.55300 24.53700 # C5 PNI
H 38.96400 -23.50100 24.92800 # H2 PNI
H 39.25600 -21.75400 24.84000 # H3 PNI
H 38.63000 -22.62000 23.44000 # H4 PNI
C 36.32900 -23.60200 24.73800 # C6 PNI
H 36.63500 -24.36400 25.46600 # H5 PNI
H 36.46500 -24.01200 23.73400 # H6 PNI
H 35.25900 -23.42300 24.89400 # H7 PNI
C 36.95100 -21.40800 29.45900 # C1 MMR
H 38.01400 -21.27400 29.67200 # H1 MMR
H 36.83300 -22.45800 29.16200 # H2 MMR
C 36.06500 -21.10000 30.69300 # C2 MMR
H 36.15500 -20.04500 30.94800 # H4 MMR
C 34.56400 -21.36400 30.42300 # C3 PNI
O 34.16800 -22.18900 29.60900 # O PNI
N 33.75100 -20.54900 31.18600 # N PNI
H 34.25500 -19.79500 31.63800 # HN PNI
C 32.33700 -20.22500 30.96300 # C4 PNI
H 32.30200 -19.61800 30.05100 # H1 PNI
C 31.35400 -21.38500 30.79800 # C5 PNI
H 31.11800 -21.86500 31.75400 # H2 PNI
H 31.70100 -22.15300 30.10300 # H3 PNI
H 30.40600 -20.99600 30.39900 # H4 PNI
C 31.89400 -19.37200 32.15800 # C6 PNI
H 32.04900 -19.92000 33.09700 # H5 PNI
H 30.84000 -19.08700 32.09700 # H6 PNI
H 32.49400 -18.45700 32.22000 # H7 PNI
C 36.54800 -21.84000 31.93600 # C1 MMR
H 36.39200 -22.89900 31.72600 # H1 MMR
H 35.90800 -21.60800 32.79800 # H2 MMR
C 38.02900 -21.52300 32.27500 # C2 MMR
H 38.64600 -21.71300 31.39800 # H4 MMR
C 38.24100 -20.03400 32.64600 # C3 PNI
O 37.36100 -19.34600 33.15000 # O PNI
N 39.50700 -19.58700 32.32600 # N PNI
H 40.02100 -20.22900 31.73100 # HN PNI
C 39.94400 -18.19300 32.16400 # C4 PNI
H 39.43900 -17.81500 31.26600 # H1 PNI
C 39.66100 -17.22100 33.31100 # C5 PNI
H 40.35400 -17.36300 34.14800 # H2 PNI
H 38.64200 -17.28500 33.69400 # H3 PNI
H 39.80600 -16.19200 32.95400 # H4 PNI
C 41.45700 -18.23000 31.91400 # C6 PNI
H 41.97000 -18.72500 32.74900 # H5 PNI
H 41.88200 -17.22900 31.79600 # H6 PNI
H 41.68400 -18.80800 31.01100 # H7 PNI
C 38.57500 -22.46000 33.35100 # C1 MMR
H 37.99600 -22.25300 34.25300 # H1 MMR
H 39.61400 -22.20500 33.59600 # H2 MMR
C 38.47800 -23.95100 32.93100 # C2 MMR
H 37.45500 -24.16900 32.62400 # H4 MMR
C 39.36800 -24.28400 31.70700 # C3 PNI
O 40.37500 -23.64600 31.42400 # O PNI
N 38.87200 -25.34400 30.97300 # N PNI
H 37.92000 -25.58800 31.21900 # HN PNI
C 39.20700 -25.71000 29.59000 # C4 PNI
H 38.81500 -24.90500 28.95600 # H1 PNI
C 40.68400 -25.90800 29.24500 # C5 PNI
H 41.06900 -26.86100 29.62200 # H2 PNI
H 41.32700 -25.10700 29.61500 # H3 PNI
H 40.79700 -25.93200 28.15200 # H4 PNI
C 38.45200 -27.00900 29.28200 # C6 PNI
H 38.73400 -27.79400 29.99600 # H5 PNI
H 38.65500 -27.37700 28.27200 # H6 PNI
H 37.37100 -26.86000 29.38100 # H7 PNI
C 38.73300 -24.89900 34.10600 # C1 MMR
H 39.76600 -24.73900 34.42900 # H1 MMR
H 38.67700 -25.94200 33.77000 # H2 MMR
C 37.74200 -24.66800 35.27500 # C2 MMR
H 37.80800 -23.62700 35.58800 # H4 MMR
C 36.26600 -24.92000 34.87900 # C3 PNI
O 35.92000 -25.87700 34.19600 # O PNI
N 35.40000 -23.98500 35.41500 # N PNI
H 35.81900 -23.19400 35.89000 # HN PNI
C 33.94000 -24.05800 35.51400 # C4 PNI
H 33.69100 -23.22300 36.18000 # H1 PNI
C 33.16100 -23.80600 34.22300 # C5 PNI
H 32.99600 -24.72300 33.64700 # H2 PNI
H 33.64400 -23.06700 33.57800 # H3 PNI
H 32.16500 -23.41300 34.47700 # H4 PNI
C 33.47200 -25.33300 36.21100 # C6 PNI
H 33.73800 -26.23000 35.64200 # H5 PNI
H 32.38500 -25.32900 36.34400 # H6 PNI
H 33.93400 -25.41500 37.20000 # H7 PNI
C 38.12200 -25.50100 36.51700 # C1 MMR
H 38.11100 -26.55700 36.22500 # H1 MMR
H 37.34800 -25.38700 37.28800 # H2 MMR
C 39.50600 -25.11100 37.10100 # C2 MMR
H 40.26300 -25.24300 36.32500 # H4 MMR
C 39.51900 -23.62000 37.53200 # C3 PNI
O 38.51800 -23.04600 37.94600 # O PNI
N 40.75900 -23.03100 37.39600 # N PNI
H 41.40700 -23.58100 36.84600 # HN PNI
C 41.05200 -21.59000 37.35400 # C4 PNI
H 40.65900 -21.23000 36.39500 # H1 PNI
C 40.47400 -20.70200 38.45900 # C5 PNI
H 41.04200 -20.78300 39.39200 # H2 PNI
H 39.42400 -20.90000 38.67900 # H3 PNI
H 40.53900 -19.65100 38.14200 # H4 PNI
C 42.57800 -21.44400 37.36000 # C6 PNI
H 43.00500 -21.93000 38.24700 # H5 PNI
H 42.89100 -20.39700 37.36000 # H6 PNI
H 43.01500 -21.93400 36.48400 # H7 PNI
C 39.93200 -25.99500 38.28700 # C1 MMR
H 39.22600 -25.77700 39.09500 # H1 MMR
H 40.91600 -25.67200 38.65000 # H2 MMR
C 39.96100 -27.51900 38.00800 # C2 MMR
H 38.97200 -27.82400 37.65400 # H4 MMR
C 40.98700 -27.92300 36.92000 # C3 PNI
O 41.98100 -27.25600 36.66100 # O PNI
N 40.66100 -29.12300 36.31800 # N PNI
H 39.69900 -29.39800 36.48100 # HN PNI
C 41.20900 -29.69900 35.08200 # C4 PNI
H 40.84900 -29.06500 34.26300 # H1 PNI
C 42.72900 -29.81600 34.95800 # C5 PNI
H 43.12900 -30.64400 35.55300 # H2 PNI
H 43.26000 -28.90400 35.23600 # H3 PNI
H 42.98700 -30.03100 33.91100 # H4 PNI
C 40.60200 -31.10100 34.94200 # C6 PNI
H 40.85600 -31.71800 35.81400 # H5 PNI
H 40.95600 -31.61700 34.04400 # H6 PNI
H 39.50900 -31.04700 34.89700 # H7 PNI
C 40.25900 -28.33200 39.27900 # C1 MMR
H 41.27300 -28.09300 39.61000 # H1 MMR
H 40.24800 -29.40400 39.06300 # H2 MMR
C 39.26900 -28.05700 40.44700 # C2 MMR
H 39.32600 -26.99300 40.68800 # H4 MMR
C 37.83500 -28.43500 40.09500 # C3 PNI
O 37.50100 -29.39100 39.42800 # O PNI
N 36.92800 -27.56000 40.74000 # N PNI
H 37.31200 -26.76100 41.16600 # HN PNI
C 35.51400 -27.78900 41.00200 # C4 PNI
H 35.24200 -26.94000 41.63900 # H1 PNI
C 34.60600 -27.69600 39.77300 # C5 PNI
H 34.40400 -28.67600 39.33900 # H2 PNI
H 35.03600 -27.04800 39.00600 # H3 PNI
H 33.63900 -27.26500 40.06600 # H4 PNI
C 35.23900 -29.05500 41.82500 # C6 PNI
H 35.51500 -29.95500 41.27500 # H5 PNI
H 34.18000 -29.12600 42.09600 # H6 PNI
H 35.82300 -29.03500 42.75100 # H7 PNI
C 39.64200 -28.82100 41.73500 # C1 MMR
H 39.58800 -29.89000 41.50700 # H1 MMR
H 38.87500 -28.64200 42.50600 # H2 MMR
C 41.02900 -28.49100 42.32700 # C2 MMR
H 41.80000 -28.74300 41.59100 # H4 MMR
C 41.17700 -27.00900 42.69400 # C3 PNI
O 40.22700 -26.30800 43.02300 # O PNI
N 42.49100 -26.58100 42.66900 # N PNI
H 43.10800 -27.10900 42.06300 # HN PNI
C 42.89200 -25.20300 42.94100 # C4 PNI
H 42.29600 -24.56200 42.28200 # H1 PNI
C 42.65400 -24.78800 44.39500 # C5 PNI
H 43.42300 -25.19700 45.06100 # H2 PNI
H 41.68500 -25.12100 44.77700 # H3 PNI
H 42.69100 -23.69600 44.48400 # H4 PNI
C 44.37800 -25.04000 42.60900 # C6 PNI
H 45.00100 -25.62900 43.29400 # H5 PNI
H 44.68700 -23.99300 42.68400 # H6 PNI
H 44.59600 -25.39100 41.59500 # H7 PNI
C 41.31300 -29.30800 43.60200 # C1 EMR
H 40.55000 -29.08900 44.36200 # H1 EMR
H 42.26500 -28.98500 44.04700 # H2 EMR
C 41.38500 -30.81000 43.33900 # C2 EMR
H 42.18300 -31.04100 42.62400 # H3 EMR
H 40.45300 -31.19600 42.91600 # H4 EMR
C 41.65700 -31.55300 44.62000 # C3 PNI
O 42.78500 -31.90700 44.94300 # O PNI
N 40.53200 -31.74300 45.39200 # N PNI
H 39.62600 -31.61100 44.96000 # HN PNI
C 40.59000 -32.47100 46.64800 # C4 PNI
H 41.52200 -32.19300 47.15300 # H1 PNI
C 39.41400 -32.07100 47.53000 # C5 PNI
H 38.45700 -32.32100 47.05700 # H2 PNI
H 39.41700 -30.99000 47.71000 # H3 PNI
H 39.46000 -32.57700 48.49900 # H4 PNI
C 40.60000 -33.97600 46.39400 # C6 PNI
H 39.68400 -34.29800 45.88600 # H5 PNI
H 40.68600 -34.53000 47.33400 # H6 PNI
H 41.44500 -34.26300 45.75700 # H7 PNI
