402

O        -76.27744      -17.78045       34.37802
S        -75.28607      -16.78201       33.57046
C        -73.82775      -17.40149       34.07942
C        -72.38895      -17.69787       34.31331
C        -70.97777      -17.79455       33.95234
N        -69.77785      -17.87025       33.18732
C        -68.77787      -18.24443       33.94089
O        -68.73837      -19.24251       34.72705
C        -67.71200      -17.38271       33.89658
C        -68.14302      -15.90401       34.13665
C        -66.39159      -17.73193       33.73996
C        -65.13605      -17.26389       34.04647
C        -65.27206      -15.83614       34.80287
O        -65.15731      -15.84095       36.02761
N        -65.73089      -14.85103       33.97748
C        -66.15014      -13.61045       34.35710
C        -65.48283      -12.28515       34.76842
C        -67.24795      -12.97078       33.45192
C        -63.95252      -18.07635       33.90867
C        -62.61184      -17.70275       33.96132
C        -62.64866      -16.25031       34.44902
O        -62.51439      -16.05029       35.65675
N        -63.07152      -15.49496       33.41191
C        -63.28203      -14.16596       33.47652
C        -63.04237      -13.17728       34.61453
C        -63.89384      -13.55831       32.16235
C        -61.42257      -18.40266       33.74554
C        -60.10706      -17.89480       33.82247
C        -60.15189      -16.45859       34.36652
O        -60.04531      -16.30750       35.58309
N        -60.46595      -15.61219       33.35551
C        -60.64534      -14.27386       33.49316
C        -60.48583      -13.28699       34.67789
C        -61.04511      -13.54607       32.13970
C        -58.87329      -18.56158       33.68159
C        -57.60162      -17.99829       33.77738
C        -57.69485      -16.57088       34.28617
O        -57.60697      -16.41030       35.52341
N        -57.95517      -15.70033       33.30163
C        -58.10384      -14.38085       33.49988
C        -57.95887      -13.37571       34.69599
C        -58.42601      -13.61215       32.14200
C        -56.36579      -18.65547       33.65171
C        -55.09241      -18.14705       33.83405
C        -55.17433      -16.66175       34.37395
O        -55.02598      -16.52893       35.57963
N        -55.44185      -15.82363       33.35551
C        -55.60365      -14.48018       33.48928
C        -55.45651      -13.49856       34.68090
C        -55.88750      -13.73369       32.11976
C        -53.90541      -18.74145       33.64631
C        -52.60279      -18.25908       33.79666
C        -52.66929      -16.80021       34.35006
O        -52.51707      -16.65294       35.56196
N        -52.94888      -15.94910       33.34224
C        -53.11369      -14.60124       33.47875
C        -52.96668      -13.61421       34.66853
C        -53.38165      -13.85274       32.10489
C        -51.36708      -18.87880       33.59504
C        -50.12753      -18.35613       33.77006
C        -50.18214      -16.89388       34.34629
O        -50.02357      -16.76307       35.55751
N        -50.46162      -16.05920       33.33772
C        -50.63291      -14.71681       33.46828
C        -50.48163      -13.72789       34.65661
C        -50.89054      -13.97137       32.09202
C        -48.91415      -18.98520       33.56499
C        -47.63326      -18.48968       33.76263
C        -47.70816      -17.02551       34.34143
O        -47.53515      -16.87749       35.55744
N        -47.98415      -16.17858       33.33742
C        -48.15272      -14.83433       33.45779
C        -47.99881      -13.84247       34.64464
C        -48.40468      -14.08981       32.07939
C        -46.44099      -19.11091       33.57548
C        -45.15160      -18.62353       33.75765
C        -45.22407      -17.14329       34.33149
O        -45.04486      -16.98591       35.55428
N        -45.50285      -16.29451       33.32982
C        -45.67498      -14.95074       33.44688
C        -45.51577      -13.95761       34.63262
C        -45.92185      -14.20833       32.06740
C        -43.95080      -19.22645       33.56429
C        -42.67205      -18.73341       33.75582
C        -42.74161      -17.25600       34.31834
O        -42.55318      -17.09500       35.54628
N        -43.01673      -16.40846       33.31695
C        -43.19633      -15.06586       33.43528
C        -43.03284      -14.07357       34.62055
C        -43.43986      -14.32639       32.05547
C        -41.46810      -19.34006       33.56183
C        -40.19288      -18.82227       33.73686
C        -40.27381      -17.35809       34.29891
O        -40.07551      -17.19535       35.54722
N        -40.51800      -16.51665       33.28453
C        -40.71873      -15.16967       33.41885
C        -40.54999      -14.18854       34.60807
C        -40.95772      -14.44134       32.04288
C        -38.98910      -19.45329       33.57436
C        -37.72033      -18.92730       33.72852
C        -37.78608      -17.49207       34.29952
O        -37.59371      -17.32310       35.50180
N        -38.04251      -16.63453       33.27578
C        -38.23775      -15.28713       33.40848
C        -38.06739      -14.30606       34.59654
C        -38.47370      -14.55840       32.03029
C        -36.50806      -19.57073       33.58073
C        -35.23173      -19.04645       33.72090
C        -35.29790      -17.60505       34.27360
O        -35.11892      -17.45580       35.50036
N        -35.56800      -16.76195       33.27511
C        -35.75810      -15.41327       33.40257
C        -35.58319      -14.42535       34.58523
C        -35.99054      -14.68016       32.01992
C        -34.02434      -19.68163       33.56864
C        -32.76628      -19.17427       33.72797
C        -32.80066      -17.73285       34.27673
O        -32.61356      -17.56828       35.49067
N        -33.08279      -16.88430       33.26924
C        -33.27874      -15.53894       33.39450
C        -33.09718      -14.54525       34.57383
C        -33.50640      -14.80463       32.01033
C        -31.52665      -19.85064       33.56577
C        -30.31745      -19.30066       33.72551
C        -30.33037      -17.85023       34.28422
O        -30.11766      -17.68282       35.47766
N        -30.60032      -17.00446       33.26380
C        -30.79560      -15.65928       33.38531
C        -30.60535      -14.66224       34.56314
C        -31.01907      -14.92690       32.00077
C        -29.06432      -19.93164       33.54954
C        -27.76819      -19.43806       33.71143
C        -27.82641      -17.95534       34.29343
O        -27.62327      -17.79147       35.55232
N        -28.08813      -17.13449       33.28304
C        -28.30492      -15.77259       33.37688
C        -28.09820      -14.78263       34.55276
C        -28.52657      -15.05155       31.99453
C        -26.58836      -20.15572       33.58305
C        -25.32093      -19.62038       33.71831
C        -25.34903      -18.13689       34.20063
O        -25.11324      -17.93770       35.40472
N        -25.62634      -17.19515       33.23908
C        -25.77482      -15.92777       33.35155
C        -25.55388      -14.87598       34.55165
C        -26.02262      -15.13313       31.96933
C        -24.04859      -20.18921       33.52587
C        -22.75558      -19.62081       33.50763
C        -22.77528      -18.21596       34.15162
O        -22.47939      -18.11239       35.35131
N        -23.04261      -17.33698       33.19325
C        -23.26125      -16.00933       33.35843
C        -22.93309      -15.03341       34.52885
C        -23.48723      -15.26573       31.99176
C        -21.43516      -20.13461       33.36269
C        -20.16476      -19.66112       33.81981
C        -20.07376      -18.19554       34.29459
O        -19.51656      -17.94832       35.36634
N        -20.37379      -17.40964       33.26925
C        -20.60753      -16.09523       33.39823
C        -20.09194      -15.12922       34.47199
C        -20.91612      -15.40214       32.05637
C        -18.84741      -20.07255       33.49069
C        -17.49403      -19.62129       33.39165
C        -17.15797      -18.13392       33.48791
O        -16.32485      -17.78348       34.33167
N        -17.66116      -17.43038       32.47677
C        -17.86458      -16.09843       32.64400
C        -16.88520      -15.13140       33.31611
C        -18.34630      -15.36832       31.39048
Br       -16.45481      -20.48459       33.97763
H        -74.06521      -18.40338       33.78835
H        -73.66874      -16.47475       34.59007
H        -72.51344      -18.71225       34.63024
H        -72.23830      -16.64776       34.45289
H        -70.79654      -18.69150       34.50690
H        -71.03356      -16.76482       33.66692
H        -69.71151      -17.66890       32.22592
H        -66.97471      -17.90598       33.32432
H        -68.96579      -15.87883       34.82025
H        -68.43779      -15.46306       33.20736
H        -67.32134      -15.35514       34.54711
H        -66.32492      -17.83610       32.67713
H        -66.41141      -18.37786       34.59276
H        -64.31997      -17.15613       33.36287
H        -65.76219      -15.05590       33.01504
H        -66.20746      -14.16688       35.26924
H        -65.38210      -11.65493       33.90960
H        -64.51537      -12.48542       35.17930
H        -66.08729      -11.79415       35.50221
H        -66.78514      -12.49121       32.61483
H        -67.79956      -12.24849       34.01665
H        -67.91211      -13.73390       33.10344
H        -64.06009      -18.53871       32.94974
H        -64.00391      -18.57218       34.85547
H        -62.04864      -18.44595       33.43657
H        -63.23673      -15.94543       32.55224
H        -62.78947      -14.47553       34.37454
H        -63.43242      -12.21880       34.34237
H        -61.99183      -13.09517       34.80036
H        -63.53486      -13.52483       35.49859
H        -64.65254      -14.21252       31.78648
H        -63.12320      -13.44703       31.42844
H        -64.32227      -12.60173       32.37752
H        -61.50915      -18.79185       32.75260
H        -61.42148      -19.01107       34.62573
H        -59.72644      -18.34999       32.93206
H        -60.57169      -15.99636       32.45524
H        -60.56391      -14.80559       34.41811
H        -60.49210      -12.28268       34.30882
H        -59.55942      -13.47729       35.17834
H        -61.29585      -13.41981       35.36427
H        -60.17079      -13.12384       31.69007
H        -61.75017      -12.76854       32.34762
H        -61.48376      -14.25542       31.46939
H        -58.90734      -19.00240       32.70721
H        -58.87939      -19.12989       34.58817
H        -57.12599      -18.34425       32.88352
H        -58.04204      -16.04656       32.38412
H        -58.10746      -14.92468       34.42136
H        -57.88964      -12.37758       34.31672
H        -57.07470      -13.60810       35.25200
H        -58.81339      -13.45601       35.33493
H        -57.51394      -13.26320       31.70466
H        -59.06504      -12.77876       32.34690
H        -58.91539      -14.27827       31.46252
H        -56.36299      -19.02989       32.64936
H        -56.41996      -19.25530       34.53611
H        -54.54254      -18.95369       33.39602
H        -55.52602      -16.20893       32.45346
H        -55.76668      -15.02250       34.39714
H        -55.22868      -12.52060       34.31133
H        -54.66635      -13.83088       35.32129
H        -56.37300      -13.46694       35.23221
H        -54.96583      -13.37507       31.71133
H        -56.54586      -12.90824       32.29327
H        -56.34239      -14.41392       31.43038
H        -53.94119      -19.06810       32.62802
H        -53.92236      -19.34695       34.52835
H        -52.11787      -19.03870       33.24717
H        -53.04119      -16.32913       32.43874
H        -53.32409      -15.14072       34.37852
H        -52.69400      -12.64789       34.29870
H        -52.20761      -13.96857       35.33423
H        -53.89712      -13.54606       35.19248
H        -52.45377      -13.50448       31.70157
H        -54.03223      -13.02011       32.27332
H        -53.83957      -14.52905       31.41365
H        -51.38593      -19.19161       32.57196
H        -51.38135      -19.53984       34.43630
H        -49.60545      -19.01777       33.11084
H        -50.54946      -16.44530       32.43635
H        -50.90519      -15.24922       34.35558
H        -50.14833      -12.77918       34.29089
H        -49.76602      -14.11331       35.35248
H        -51.42634      -13.61000       35.14499
H        -49.95842      -13.63409       31.68914
H        -51.53294      -13.13155       32.25608
H        -51.35403      -14.64563       31.40249
H        -48.93317      -19.27222       32.53439
H        -48.94803      -19.65790       34.39639
H        -47.05434      -19.20568       33.21757
H        -48.07219      -16.56376       32.43568
H        -48.44345      -15.37340       34.33516
H        -47.64930      -12.89974       34.27859
H        -47.29492      -14.23495       35.34848
H        -48.94627      -13.70993       35.12387
H        -47.47329      -13.73480       31.69031
H        -49.06431      -13.26209       32.23646
H        -48.84635      -14.77049       31.38189
H        -46.46329      -19.42105       32.55166
H        -46.47593      -19.75446       34.42960
H        -44.64015      -19.41485       33.25057
H        -45.59072      -16.67995       32.42817
H        -46.00408      -15.48325       34.31465
H        -45.12823      -13.02848       34.27008
H        -44.84060      -14.36855       35.35385
H        -46.46892      -13.79237       35.08990
H        -44.98788      -13.86222       31.67649
H        -46.57436      -13.37467       32.22279
H        -46.36987      -14.88719       31.37219
H        -43.96736      -19.52005       32.53549
H        -43.98069      -19.88049       34.41060
H        -42.15306      -19.54784       33.29510
H        -43.09591      -16.79288       32.41407
H        -43.56431      -15.58422       34.29598
H        -42.60572      -13.15954       34.26416
H        -42.38951      -14.50357       35.35955
H        -43.99074      -13.87455       35.05382
H        -42.50254      -14.00102       31.65489
H        -44.07425      -13.47907       32.21201
H        -43.90727      -14.99966       31.36762
H        -41.48991      -19.65433       32.53926
H        -41.48643      -19.98951       34.41200
H        -39.63597      -19.42124       33.04694
H        -40.55570      -16.89531       32.37655
H        -41.15406      -15.63425       34.27883
H        -40.04712      -13.30541       34.27326
H        -39.97333      -14.65713       35.37800
H        -41.51309      -13.92618       34.99343
H        -40.01482      -14.19206       31.60278
H        -41.52271      -13.54741       32.20591
H        -41.49800      -15.08978       31.38521
H        -39.00944      -19.81832       32.56875
H        -39.01320      -20.06982       34.44855
H        -37.25716      -19.38665       32.88036
H        -38.09148      -17.01297       32.36824
H        -38.67127      -15.75042       34.27007
H        -37.56525      -13.42293       34.26063
H        -37.48940      -14.77429       35.36569
H        -39.02993      -14.04377       34.98336
H        -37.52970      -14.31242       31.59069
H        -39.03601      -13.66258       32.19217
H        -39.01551      -15.20569       31.37274
H        -36.53050      -19.96105       32.58471
H        -36.53405      -20.16198       34.47216
H        -34.76512      -19.56100       32.90701
H        -35.63624      -17.14292       32.36988
H        -36.19500      -15.89030       34.25489
H        -35.08138      -13.54450       34.24293
H        -35.00321      -14.88982       35.35516
H        -36.54432      -14.16015       34.97357
H        -35.04581      -14.41119       31.59559
H        -36.57478      -13.79777       32.17787
H        -36.50821      -15.33571       31.35122
H        -34.03968      -20.04769       32.56332
H        -34.05795      -20.28967       34.44844
H        -32.31270      -19.72817       32.93276
H        -33.15378      -17.26712       32.36500
H        -33.74973      -16.01665       34.22809
H        -32.56525      -13.68139       34.23368
H        -32.54388      -15.01912       35.35755
H        -34.05728      -14.25050       34.94292
H        -32.56069      -14.52516       31.59507
H        -34.10096      -13.92856       32.16490
H        -34.01138      -15.46393       31.33563
H        -31.53734      -20.22562       32.56368
H        -31.55285      -20.49952       34.41616
H        -30.12086      -19.87761       32.84610
H        -30.66085      -17.39055       32.36019
H        -31.29037      -16.13114       34.20839
H        -30.04982      -13.81257       34.22499
H        -30.07247      -15.14428       35.35596
H        -31.56286      -14.34373       34.91901
H        -30.07208      -14.64923       31.58722
H        -31.61277      -14.04983       32.15296
H        -31.52348      -15.58633       31.32578
H        -29.08646      -20.27146       32.53518
H        -29.09097      -20.53392       34.43354
H        -27.16588      -19.75122       32.88434
H        -28.13181      -17.53281       32.38377
H        -28.91001      -16.22171       34.13653
H        -27.44229      -13.99526       34.24500
H        -27.66774      -15.30103       35.38395
H        -29.04196      -14.36864       34.84058
H        -27.58010      -14.76484       31.58601
H        -29.13107      -14.18064       32.13941
H        -29.01914      -15.71925       31.31892
H        -26.61668      -20.57991       32.60114
H        -26.63609      -20.76803       34.45924
H        -25.13838      -20.57536       33.27155
H        -25.72600      -17.54793       32.32538
H        -26.16598      -16.54123       34.13612
H        -25.11643      -13.97960       34.16430
H        -24.90193      -15.30311       35.28474
H        -26.49653      -14.64666       35.00300
H        -25.11304      -14.66133       31.66116
H        -26.77816      -14.38976       32.11580
H        -26.34098      -15.82134       31.21440
H        -24.12759      -20.66665       32.57156
H        -23.96960      -20.64261       34.49183
H        -22.75252      -20.05570       32.53000
H        -23.08633      -17.68316       32.27266
H        -23.95405      -16.37284       34.08837
H        -22.16082      -14.35827       34.22440
H        -22.60253      -15.59370       35.37838
H        -23.81066      -14.47839       34.78715
H        -22.54083      -15.06040       31.53670
H        -24.00550      -14.34626       32.16743
H        -24.06913      -15.88446       31.34102
H        -21.30916      -20.20597       32.30253
H        -21.53418      -20.92211       34.08028
H        -20.41762      -20.49620       34.43916
H        -20.42746      -17.80982       32.37136
H        -21.39621      -16.34822       34.07565
H        -19.21186      -14.63618       34.11524
H        -19.85856      -15.67624       35.36148
H        -20.84567      -14.40124       34.68840
H        -20.00346      -15.23336       31.52395
H        -21.39947      -14.46566       32.24150
H        -21.55962      -16.02631       31.47223
H        -19.00185      -20.44122       32.49815
H        -18.68201      -20.41392       34.49119
H        -17.45497      -19.69293       32.32476
H        -17.88197      -17.86774       31.62284
H        -18.58514      -16.29297       33.41072
H        -16.11204      -14.86890       32.62458
H        -16.45185      -15.60162       34.17401
H        -17.40756      -14.24813       33.61925
H        -17.52686      -15.24231       30.71406
H        -18.73431      -14.40920       31.66331
H        -19.11493      -15.94237       30.91659
