40

C          0.54493       -0.24454       -0.30436
C          2.01556        0.01708        0.02590
C          3.21234        0.56801        0.72138
C          4.30016        1.20899        1.53052
C          5.52057        1.72749        2.18505
O          6.72416        2.13749        2.70262
H          0.47990       -0.90772       -1.14153
H          0.06314        0.68038       -0.54376
H          0.06313       -0.68925        0.54122
H          2.28898        0.35792       -0.95082
H          1.89218       -0.63745        0.86332
H          3.60964        0.95909       -0.19192
H          2.87670        0.08397        1.61465
H          3.91190        0.82254        2.44965
H          4.60684        1.71976        0.64172
H          5.19719        1.36952        3.14014
H          5.80403        2.16439        1.25035
N          6.81041        1.75592        4.01558
C          6.92360        0.30887        4.09502
C          7.04293       -1.21659        4.17899
C          7.16225       -2.74210        4.26272
H          7.63246        2.18480        4.44067
H          7.78329        0.34114        3.45878
H          6.06383        0.27659        4.73114
H          6.18324       -1.24887        4.81522
H          7.90270       -1.18430        3.54287
C          6.05020       -3.28977        5.14237
S          5.71504       -4.98144        4.69083
C          4.50806       -5.52360        5.68414
S          3.65158       -6.93523        5.90432
C          2.48033       -6.89506        7.13550
O          1.49684       -7.24355        7.98892
H          8.11092       -3.00310        4.68320
H          7.07973       -3.16070        3.28146
H          6.35283       -3.24745        6.16781
H          5.16611       -2.70238        5.00722
H          3.72930       -4.81267        5.50247
H          5.16792       -5.70988        6.50559
H          1.96702       -6.04041        6.74692
H          3.12574       -7.53588        7.69914
